#Template file for PHRREQC/Python interactions.
#Parameters to vary should be bracketed with a name, which then gets put into the python script
#Make sure that your output file reports what you want to report. Namely, pH and Ra, which only reports solution avaialble radium
GAS_PHASE 1
    -fixed_pressure
    -pressure 1
    -volume 1
    -temperature 25
    CO2(g)    0.00033
    O2(g)     0.26
SURFACE_MASTER_SPECIES
    Clay_i   Clay_iNa #Inner layer
    Clay_s   Clay_sOH #Surface Strong
    Clay_w1  Clay_w1OH #Surface weak
    Clay_w2  Clay_w2OH #Surface weak
SURFACE_SPECIES

Clay_sOH + H+ = Clay_sOH2+
     log_k    4.5
Clay_sOH = Clay_sO- + H+
     log_k -7.9
Clay_w1OH + H+ = Clay_w1OH2+
     log_k    4.5
Clay_w1OH = Clay_w1O- + H+
     log_k -7.9
Clay_w2OH + H+ = Clay_w2OH2+
     log_k    6
Clay_w2OH = Clay_w2O- + H+
     log_k -10.5


2 Clay_iNa + Ra+2 = (Clay_i)2Ra + 2 Na+ #Intrinsic K, we're assuming it's constant because we're at trace Ra levels
    log_k     $kInt
Clay_sOH + Ra+2 = Fhy_sOHRa+2
    log_k     $ks
Clay_w1OH + Ra+2 = Fhy_wORa+ + H+
    log_k     $kw

SURFACE 1
    Fhy_sOH      $siteS 600 0.03
    Fhy_wOH	 $siteW 
END
SOLUTION 1
    temp      25
    units     mol/l
    density   1
    Ra        $totRa
    Cl        0.01
    Na        0.01
    -water    0.1 # kg
END
PHASES
NaCl
    NaCl = Na+ + Cl-
    log_k     -20
PHASES
pH_set
    H+=H+
    log_k     0.0
END
USE solution 1; USE GAS_PHASE 1; USE surface 1
EQUILIBRIUM_PHASES 1
NaCl 0 10.0
pH_set          -$pH HCl 10.0
SELECTED_OUTPUT
#IF YOU CHANGE THIS YOU WILL NEED TO FIX simulation.generateData() in the python script. (Assumes 2 columns of data, in the order (pH, radium))
    -reset                false
    -totals               Ra 
    -molalities 	  Ra+2 RaCl+ RaCl2 Ra(OH)+ Ra(OH)2 Ra(HCO3)+ Ra(CO3) Fhy_sOHRa+2 Fhy_wORa+
    -pH                   true
END