#Template file for PHRREQC/Python interactions.
#Parameters to vary should be bracketed with a name, which then gets put into the python script
#Make sure that your output file reports what you want to report. Namely, pH and Ra, which only reports solution avaialble radium
GAS_PHASE 1
    -fixed_pressure
    -pressure 1
    -volume 1
    -temperature 25
    CO2(g)    0.00033
    O2(g)     0.26
SURFACE_MASTER_SPECIES
    Fhy_s           Fhy_sOH
    Fhy_w           Fhy_wOH        
SURFACE_SPECIES
Fhy_sOH + H+ = Fhy_sOH2+
    log_k     7.29
Fhy_sOH = Fhy_sOH
    log_k     0
Fhy_sOH = Fhy_sO- + H+
    log_k     -8.93
Fhy_wOH + H+ = Fhy_wOH2+
    log_k     7.29
Fhy_wOH = Fhy_wOH
    log_k     0
Fhy_wOH = Fhy_wO- + H+
    log_k     -8.93

Fhy_sOH + Ra+2 = Fhy_sOHRa+2
    log_k     $k1
Fhy_wOH + Ra+2 = Fhy_wORa+ + H+
    log_k     $k2
Fhy_wOH + Ra+2 + H2O = Fhy_wORaOH + 2 H+
    log_k     $k3

#Others are not widely available

SURFACE 1
#For DzombakMorel values, use 5.62E-5 for Weak, and 1.40E-6 for Strong for 30 mg FHY
    Fhy_sOH      5.62E-5 382.9 0.03
    Fhy_wOH	     1.40E-6 
END
SOLUTION 1
    temp      25
    units     mol/l
    density   1
    Ra        $totRa
    Cl        $Cl
    Na        $Na
    K         $K
    Mg        $Mg
    Ca        $Ca
    Sr        $Sr
    -water    0.1 # kg
END
PHASES
pH_set
    H+=H+
    log_k     0.0
END
USE solution 1; USE GAS_PHASE 1; USE surface 1
EQUILIBRIUM_PHASES 1
pH_set          -$pH HCl 10.0
SELECTED_OUTPUT
#IF YOU CHANGE THIS YOU WILL NEED TO FIX simulation.generateData() in the python script. (Assumes 2 columns of data, in the order (pH, radium))
    -reset                false
    -totals               Ra 
    -molalities 	  Ra+2 RaCl+ RaCl2 Ra(OH)+ Ra(OH)2 Ra(HCO3)+ Ra(CO3) Fhy_sOHRa+2 Fhy_wORa+ Fhy_wORaOH
    -pH                   true
END