DATABASE C:\Program Files (x86)\USGS\Phreeqc Interactive 3.1.4-8929\database\sit.dat
#Template file for PHRREQC/Python interactions.
#Parameters to vary should be bracketed with a name, which then gets put into the python script
#Make sure that your output file reports what you want to report. Namely, pH and Ra, which only reports solution avaialble radium
EXCHANGE_MASTER_SPECIES
Clay_i	Clay_i-
EXCHANGE_SPECIES
Clay_i- = Clay_i-
    log_k 0.0
Clay_i- + Na+ = NaClay_i
    log_k 0.0
2Clay_i- + Ra+2 = Clay_i2Ra
    log_k 5
EXCHANGE 1
   NaClay_i 2.8E-5 #Calculated from the CEC listed by Clays.org for STX-1b CaMont
GAS_PHASE 1
    -fixed_pressure
    -pressure 1
    -volume 1
    -temperature 25
    CO2(g)    0.00033
    O2(g)     0.26

SOLUTION 1
    temp      25
    pH        5
    pe        4
    redox     pe
    units     mol/l
    density   1
    Cl        0.01 
    Na        0.01 charge
    Ra        5.979e-11
    -water    0.1 # kg
END



USE solution 1;
 USE GAS_PHASE 1;
 USE EXCHANGE 1
SELECTED_OUTPUT
#Make sure you get the output columns you want
    -reset                false
    -totals               Ra 
    -molalities 	  Ra+2 RaCl+ RaCl2 Ra(OH)+ Ra(OH)2 Ra(HCO3)+ Ra(CO3) Clay_i2Ra
    -percent_error        true
    -pH                   true
END