DATABASE C:\Program Files (x86)\USGS\Phreeqc Interactive 3.1.4-8929\database\sit.dat
#Template file for PHRREQC/Python interactions.
#Parameters to vary should be bracketed with a name, which then gets put into the python script
#Make sure that your output file reports what you want to report. Namely, pH and Ra, which only reports solution avaialble radium
GAS_PHASE 1
    -fixed_pressure
    -pressure 1
    -volume 1
    -temperature 25
    CO2(g)    0.00033
    O2(g)     0.26
SURFACE_MASTER_SPECIES
    Fhy           FhyOH        
SURFACE_SPECIES
FhyOH + H+ = FhyOH2+
    log_k     7.29
FhyOH = FhyOH
    log_k     0
FhyOH = FhyO- + H+
    log_k     -8.93
FhyOH + Ra+2 = FhyOHRa+2
    log_k     7.0
SURFACE 1
    FhyOH      5.98E-5 600 0.03
END
SOLUTION 1
    temp      25
    units     mol/l
    density   1
    Ra        5.979e-010
    Cl        0.01
    Na        0.01
    -water    0.1 # kg
END
PHASES
NaCl
    NaCl = Na+ + Cl-
    log_k     -20
PHASES
pH_set
    H+=H+
    log_k     0.0
END
USE solution 1; USE GAS_PHASE 1; USE surface 1
EQUILIBRIUM_PHASES 1
NaCl 0 10.0
pH_set          -7 HCl 10.0
SELECTED_OUTPUT
#IF YOU CHANGE THIS YOU WILL NEED TO FIX simulation.generateData() in the python script. (Assumes 2 columns of data, in the order (pH, radium))
    -reset                false
    -totals               Ra
    -molalities           Ra+2 RaCl+ RaCl2 Ra(OH)+ Ra(OH)2 Ra(HCO3)+ Ra(CO3) FhyOHRa+2 FhyORa+
    -pH                   true
END