#Template file for PHRREQC/Python interactions.
#Parameters to vary should be bracketed with a name, which then gets put into the python script
#Make sure that your output file reports what you want to report. Namely, pH and Ra, which only reports solution avaialble radium
GAS_PHASE 1
    -fixed_pressure
    -pressure 1
    -volume 1
    -temperature 25
    CO2(g)    0.00033
    O2(g)     0.26
SURFACE_MASTER_SPECIES
    Clay_s   Clay_sOH #Surface site
    Clay_w   Clay_wOH
    Clay_wb  Clay_wbOH
SURFACE_SPECIES

Clay_sOH = Clay_sOH
     log_k  0.0
Clay_wOH = Clay_wOH
     log_k 0.0
Clay_wbOH = Clay_wbOH
     log_k 0.0

Clay_wOH + H+ = Clay_wOH2+
     log_k    4.5
Clay_wOH = Clay_wO- + H+
     log_k -7.9
Clay_sOH + H+ = Clay_sOH2+
     log_k    4.5
Clay_sOH = Clay_sO- + H+
     log_k -7.9
Clay_wbOH + H+ = Clay_wbOH2+
     log_k 6.0
Clay_wbOH = Clay_wbO- + H+
     log_k -10.5

Clay_sOH + Ra+2 = Clay_sORa+ + H+
    log_k     $k1
Clay_wOH + Ra+2 = Clay_wORa+ + H+
    log_k   $k2


#Constants estimated by LFER posed by Baeyens and Bradbury


Clay_sOH + Mg+2 = Clay_sOMg+ + H+
    log_k -2.4
Clay_wOH + Mg+2 = Clay_wOMg+ + H+
    log_k -5.2

Clay_sOH + Ca+2 = Clay_sOCa+ + H+
    log_k -3.4
Clay_wOH + Ca+2 = Clay_wOCa+ + H+
    log_k -6.3

Clay_sOH + Sr+2 = Clay_sOSr+ + H+
    log_k     -3.9
Clay_sOH + Sr+2 + H2O = Clay_sOSrOH + 2 H+
    log_k     -16.7
Clay_wOH + Sr+2 = Clay_wOSr+ + H+
    log_k   -6.8
Clay_wOH + Sr+2 + H2O = Clay_wOSrOH + 2 H+ 
    log_k   -20.8


SURFACE 1
    Clay_s 6E-8 50.162 0.03 #measured SA
    Clay_w 1.2E-6
    Clay_wb 1.2E-6
    -no_edl
END
SOLUTION 1
    temp      25
    units     mol/l
    density   1
    Cl        0.01
    Na        0.01
    -water    0.1 # kg
END
SOLUTION 2
    temp      25
    units     mol/l
    density   1
    Ra        $totRa
    Cl        $Cl
    Na        $Na
    K         $K
    Mg        $Mg
    Ca        $Ca
    Sr        $Sr
    -water    0.1 # kg
END
PHASES
pH_set
    H+=H+
    log_k     0.0
END
EXCHANGE_MASTER_SPECIES
Clay_i	Clay_i-

EXCHANGE_SPECIES #There's a question on how relevant this would be since selectivity coefficients are for trace amounts of ion
Clay_i- + Na+ = Clay_iNa
    log_k 0.0
Clay_i- = Clay_i-
    log_k 0.0
2Clay_i- + Ra+2 = Clay_i2Ra
    log_k 0.2 #Fitted to match non-pH dependent sorption


EXCHANGE 1
   Clay_iNa 2.53E-5 #Calculated from the CEC listed by Clays.org for STX-1b CaMont
#   -equilibrate with solution 1
END

USE solution 2; USE GAS_PHASE 1; USE surface 1; USE EXCHANGE 1
EQUILIBRIUM_PHASES 1
pH_set          -$pH HCl 10.0
SELECTED_OUTPUT
#Make sure you get the output columns you want
    -reset                false
    -totals               Ra 
    -molalities 	  Ra+2 RaCl+ RaCl2 Ra(OH)+ Ra(OH)2 Ra(HCO3)+ Ra(CO3) Clay_sOHRa+2 Clay_i2Ra Clay_i- Clay_iNa Clay_wORa+
    -pH                   true
END