#Template file for PHRREQC/Python interactions.
#Parameters to vary should be bracketed with a name, which then gets put into the python script
#Make sure that your output file reports what you want to report. Namely, pH and Ra, which only reports solution avaialble radium
GAS_PHASE 1
    -fixed_pressure
    -pressure 1
    -volume 1
    -temperature 25
    CO2(g)    0.00033
    O2(g)     0.26
SURFACE_MASTER_SPECIES
    Clay_s   Clay_sOH #Surface site
SURFACE_SPECIES

Clay_sOH = Clay_sOH
     log_k  0.0

Clay_sOH + H+ = Clay_sOH2+
     log_k    4.5
Clay_sOH = Clay_sO- + H+
     log_k -7.9
Clay_sOH + Ra+2 = Clay_sOHRa+2
    log_k     $Ks

SURFACE 1
    Clay_s 2.5E-6 83.79 0.03
END
SOLUTION 1
    temp      25
    units     mol/l
    density   1
    Ra        $totRa
    Cl        0.01
    Na        0.01
    -water    0.1 # kg
END
PHASES
NaCl
    NaCl = Na+ + Cl-
    log_k     -20
PHASES
pH_set
    H+=H+
    log_k     0.0
END
EXCHANGE_MASTER_SPECIES
Clay_i	Clay_i-

EXCHANGE_SPECIES
Clay_i- = Clay_i-
    log_k 0.0
Clay_i- + Na+ = NaClay_i
    log_k 0.0
2Clay_i- + Ra+2 = Clay_i2Ra
    log_k $K_int
EXCHANGE 1
   NaClay_i 2.53E-5

END

USE solution 1; USE GAS_PHASE 1; USE surface 1; USE EXCHANGE 1
EQUILIBRIUM_PHASES 1
NaCl 0 10.0
pH_set          -$pH HCl 10.0
SELECTED_OUTPUT
#IF YOU CHANGE THIS YOU WILL NEED TO FIX simulation.generateData() in the python script. (Assumes 2 columns of data, in the order (pH, radium))
    -reset                false
    -totals               Ra 
    -molalities 	  Ra+2 RaCl+ RaCl2 Ra(OH)+ Ra(OH)2 Ra(HCO3)+ Ra(CO3) Clay_sOHRa+2 Clay_i2Ra
    -pH                   true
END